<routes>

      <vType id="Emergency" minGap="2.5" length="2.0" maxSpeed="10.0" sigma="0.0" color='1,0,0' accel = "2.0" decel = "2.0" emergencyDecel="2.0"/>
      <vType id="Ego" minGap="2.5" length="2.0" maxSpeed="5.0" sigma="0.0" color='0,0,1' accel = "1.0" decel = "1.0"  emergencyDecel="1.0" />

      <route id="Emer_route" edges="r1 r2"/>
      <route id="Ego_route" edges="r2"/>

      
      <vehicle depart="0" departSpeed = "10.0" id="LH" route="Emer_route" type="Emergency" departLane = "2"/>

        
      <vehicle depart="0" id="RB_L0I0" route="Ego_route" type="Ego" departLane = "0" color="1,1,1" departPos="447.0"/>      
        
      <vehicle depart="0" id="RB_L0I1" route="Ego_route" type="Ego" departLane = "0" color="1,1,1" departPos="399.5"/>      
        
      <vehicle depart="0" id="RB_L0I2" route="Ego_route" type="Ego" departLane = "0" color="1,1,1" departPos="371.0"/>      
        
      <vehicle depart="0" id="RB_L0I3" route="Ego_route" type="Ego" departLane = "0" color="1,1,1" departPos="361.5"/>      
        
      <vehicle depart="0" id="RB_L0I4" route="Ego_route" type="Ego" departLane = "0" color="1,1,1" departPos="333.0"/>      
        
      <vehicle depart="0" id="RB_L0I5" route="Ego_route" type="Ego" departLane = "0" color="1,1,1" departPos="314.0"/>      
        
      <vehicle depart="0" id="RB_L0I6" route="Ego_route" type="Ego" departLane = "0" color="1,1,1" departPos="304.5"/>      
        
      <vehicle depart="0" id="RB_L0I7" route="Ego_route" type="Ego" departLane = "0" color="1,1,1" departPos="276.0"/>      
        
      <vehicle depart="0" id="RB_L0I8" route="Ego_route" type="Ego" departLane = "0" color="1,1,1" departPos="266.5"/>      
        
      <vehicle depart="0" id="RB_L0I9" route="Ego_route" type="Ego" departLane = "0" color="1,1,1" departPos="247.5"/>      
        
      <vehicle depart="0" id="RB_L0I10" route="Ego_route" type="Ego" departLane = "0" color="1,1,1" departPos="228.5"/>      
        
      <vehicle depart="0" id="RB_L0I11" route="Ego_route" type="Ego" departLane = "0" color="1,1,1" departPos="190.5"/>      
        
      <vehicle depart="0" id="RB_L0I12" route="Ego_route" type="Ego" departLane = "0" color="1,1,1" departPos="181.0"/>      
        
      <vehicle depart="0" id="RB_L0I13" route="Ego_route" type="Ego" departLane = "0" color="1,1,1" departPos="171.5"/>      
        
      <vehicle depart="0" id="RB_L0I14" route="Ego_route" type="Ego" departLane = "0" color="1,1,1" departPos="162.0"/>      
        
      <vehicle depart="0" id="RB_L0I15" route="Ego_route" type="Ego" departLane = "0" color="1,1,1" departPos="143.0"/>      
        
      <vehicle depart="0" id="RB_L0I16" route="Ego_route" type="Ego" departLane = "0" color="1,1,1" departPos="133.5"/>      
        
      <vehicle depart="0" id="RB_L0I17" route="Ego_route" type="Ego" departLane = "0" color="1,1,1" departPos="86.0"/>      
        
      <vehicle depart="0" id="RB_L0I18" route="Ego_route" type="Ego" departLane = "0" color="1,1,1" departPos="67.0"/>      
        
      <vehicle depart="0" id="RB_L0I19" route="Ego_route" type="Ego" departLane = "0" color="1,1,1" departPos="48.0"/>      
        
      <vehicle depart="0" id="RB_L1I0" route="Ego_route" type="Ego" departLane = "1" color="1,1,1" departPos="447.0"/>      
        
      <vehicle depart="0" id="RB_L1I1" route="Ego_route" type="Ego" departLane = "1" color="1,1,1" departPos="437.5"/>      
        
      <vehicle depart="0" id="RB_L1I2" route="Ego_route" type="Ego" departLane = "1" color="1,1,1" departPos="428.0"/>      
        
      <vehicle depart="0" id="RB_L1I3" route="Ego_route" type="Ego" departLane = "1" color="1,1,1" departPos="418.5"/>      
        
      <vehicle depart="0" id="RB_L1I4" route="Ego_route" type="Ego" departLane = "1" color="1,1,1" departPos="390.0"/>      
        
      <vehicle depart="0" id="RB_L1I5" route="Ego_route" type="Ego" departLane = "1" color="1,1,1" departPos="380.5"/>      
        
      <vehicle depart="0" id="RB_L1I6" route="Ego_route" type="Ego" departLane = "1" color="1,1,1" departPos="361.5"/>      
        
      <vehicle depart="0" id="RB_L1I7" route="Ego_route" type="Ego" departLane = "1" color="1,1,1" departPos="352.0"/>      
        
      <vehicle depart="0" id="RB_L1I8" route="Ego_route" type="Ego" departLane = "1" color="1,1,1" departPos="333.0"/>      
        
      <vehicle depart="0" id="RB_L1I9" route="Ego_route" type="Ego" departLane = "1" color="1,1,1" departPos="276.0"/>      
        
      <vehicle depart="0" id="RB_L1I10" route="Ego_route" type="Ego" departLane = "1" color="1,1,1" departPos="266.5"/>      
        
      <vehicle depart="0" id="RB_L1I11" route="Ego_route" type="Ego" departLane = "1" color="1,1,1" departPos="257.0"/>      
        
      <vehicle depart="0" id="RB_L1I12" route="Ego_route" type="Ego" departLane = "1" color="1,1,1" departPos="247.5"/>      
        
      <vehicle depart="0" id="RB_L1I13" route="Ego_route" type="Ego" departLane = "1" color="1,1,1" departPos="219.0"/>      
        
      <vehicle depart="0" id="RB_L1I14" route="Ego_route" type="Ego" departLane = "1" color="1,1,1" departPos="200.0"/>      
        
      <vehicle depart="0" id="RB_L1I15" route="Ego_route" type="Ego" departLane = "1" color="1,1,1" departPos="143.0"/>      
        
      <vehicle depart="0" id="RB_L1I16" route="Ego_route" type="Ego" departLane = "1" color="1,1,1" departPos="114.5"/>      
        
      <vehicle depart="0" id="RB_L1I17" route="Ego_route" type="Ego" departLane = "1" color="1,1,1" departPos="105.0"/>      
        
      <vehicle depart="0" id="RB_L1I18" route="Ego_route" type="Ego" departLane = "1" color="1,1,1" departPos="29.0"/>      
        
      <vehicle depart="0" id="RB_L1I19" route="Ego_route" type="Ego" departLane = "1" color="1,1,1" departPos="19.5"/>      
        
      <vehicle depart="0" id="RB_L1I20" route="Ego_route" type="Ego" departLane = "1" color="1,1,1" departPos="10.0"/>      
        
      <vehicle depart="0" id="RB_L2I0" route="Ego_route" type="Ego" departLane = "2" color="1,1,1" departPos="447.0"/>      
        
      <vehicle depart="0" id="RB_L2I1" route="Ego_route" type="Ego" departLane = "2" color="1,1,1" departPos="437.5"/>      
        
      <vehicle depart="0" id="RB_L2I2" route="Ego_route" type="Ego" departLane = "2" color="1,1,1" departPos="409.0"/>      
        
      <vehicle depart="0" id="RB_L2I3" route="Ego_route" type="Ego" departLane = "2" color="1,1,1" departPos="371.0"/>      
        
      <vehicle depart="0" id="RB_L2I4" route="Ego_route" type="Ego" departLane = "2" color="1,1,1" departPos="152.5"/>      
        
      <vehicle depart="0" id="RB_L2I5" route="Ego_route" type="Ego" departLane = "2" color="1,1,1" departPos="105.0"/>      
        
      <vehicle depart="0" id="RB_L2I6" route="Ego_route" type="Ego" departLane = "2" color="1,1,1" departPos="86.0"/>      
        
      <vehicle depart="0" id="RB_L2I7" route="Ego_route" type="Ego" departLane = "2" color="1,1,1" departPos="48.0"/>      
        
      <vehicle depart="0" id="RB_L2I8" route="Ego_route" type="Ego" departLane = "2" color="1,1,1" departPos="29.0"/>      
        
      <vehicle depart="0" id="RB_L2I9" route="Ego_route" type="Ego" departLane = "2" color="1,1,1" departPos="19.5"/>      
      

      <!-- depart: Determines the time at which the vehicle enters the network  -->
      <!-- edges: sequence of routes for vehicle-->
      <!-- r1L for ego only, -->
      <!-- more info: https://sumo.dlr.de/docs/Definition_of_Vehicles,_Vehicle_Types,_and_Routes.html#depart -->
      <!--      <vehicle depart="0" id="RB" route="Ego_route" type="Ego" departLane = "" />
-->

</routes>