<routes>

      <vType id="Emergency" length="2.0" maxSpeed="10.0" sigma="0.0" color='1,0,0' depart= "10.0"/>
      <vType id="Ego" length="2.0" maxSpeed="5.0" sigma="0.0" color='0,0,1' />

      <route id="Emer_route" edges="r1 r2"/>
      <route id="Ego_route" edges="r2"/>

      
      <vehicle depart="0" id="RB" route="Ego_route" type="Ego" />
      <vehicle depart="0" id="LH" route="Emer_route" type="Emergency" />

      <!-- depart: speed of start for the vehicle -->
      <!-- edges: sequence of routes for vehicle-->
      <!-- r1L for ego only, -->

</routes>

