<routes>

      <vType id="Emergency" minGap="2.5" length="2.0" maxSpeed="10.0" sigma="0.0" color='1,0,0' accel = "2.0" decel = "2.0" emergencyDecel="2.0"/>
      <vType id="Ego" minGap="2.5" length="2.0" maxSpeed="5.0" sigma="0.0" color='0,0,1' accel = "1.0" decel = "1.0"  emergencyDecel="1.0" />

      <route id="Emer_route" edges="r1 r2"/>
      <route id="Ego_route" edges="r2"/>

      
      <vehicle depart="0" departSpeed = "10.0" id="LH" route="Emer_route" type="Emergency" departLane = "1"/>

        
      <vehicle depart="0" id="RB_L0I0" route="Ego_route" type="Ego" departLane = "0" color="1,1,1" departPos="334.5"/>      
        
      <vehicle depart="0" id="RB_L0I1" route="Ego_route" type="Ego" departLane = "0" color="1,1,1" departPos="325.0"/>      
        
      <vehicle depart="0" id="RB_L0I2" route="Ego_route" type="Ego" departLane = "0" color="1,1,1" departPos="315.5"/>      
        
      <vehicle depart="0" id="RB_L0I3" route="Ego_route" type="Ego" departLane = "0" color="1,1,1" departPos="296.5"/>      
        
      <vehicle depart="0" id="RB_L0I4" route="Ego_route" type="Ego" departLane = "0" color="1,1,1" departPos="277.5"/>      
        
      <vehicle depart="0" id="RB_L0I5" route="Ego_route" type="Ego" departLane = "0" color="1,1,1" departPos="268.0"/>      
        
      <vehicle depart="0" id="RB_L0I6" route="Ego_route" type="Ego" departLane = "0" color="1,1,1" departPos="258.5"/>      
        
      <vehicle depart="0" id="RB_L0I7" route="Ego_route" type="Ego" departLane = "0" color="1,1,1" departPos="249.0"/>      
        
      <vehicle depart="0" id="RB_L0I8" route="Ego_route" type="Ego" departLane = "0" color="1,1,1" departPos="239.5"/>      
        
      <vehicle depart="0" id="RB_L0I9" route="Ego_route" type="Ego" departLane = "0" color="1,1,1" departPos="220.5"/>      
        
      <vehicle depart="0" id="RB_L0I10" route="Ego_route" type="Ego" departLane = "0" color="1,1,1" departPos="211.0"/>      
        
      <vehicle depart="0" id="RB_L0I11" route="Ego_route" type="Ego" departLane = "0" color="1,1,1" departPos="201.5"/>      
        
      <vehicle depart="0" id="RB_L0I12" route="Ego_route" type="Ego" departLane = "0" color="1,1,1" departPos="192.0"/>      
        
      <vehicle depart="0" id="RB_L0I13" route="Ego_route" type="Ego" departLane = "0" color="1,1,1" departPos="182.5"/>      
        
      <vehicle depart="0" id="RB_L0I14" route="Ego_route" type="Ego" departLane = "0" color="1,1,1" departPos="163.5"/>      
        
      <vehicle depart="0" id="RB_L0I15" route="Ego_route" type="Ego" departLane = "0" color="1,1,1" departPos="154.0"/>      
        
      <vehicle depart="0" id="RB_L0I16" route="Ego_route" type="Ego" departLane = "0" color="1,1,1" departPos="144.5"/>      
        
      <vehicle depart="0" id="RB_L0I17" route="Ego_route" type="Ego" departLane = "0" color="1,1,1" departPos="135.0"/>      
        
      <vehicle depart="0" id="RB_L0I18" route="Ego_route" type="Ego" departLane = "0" color="1,1,1" departPos="116.0"/>      
        
      <vehicle depart="0" id="RB_L0I19" route="Ego_route" type="Ego" departLane = "0" color="1,1,1" departPos="106.5"/>      
        
      <vehicle depart="0" id="RB_L0I20" route="Ego_route" type="Ego" departLane = "0" color="1,1,1" departPos="97.0"/>      
        
      <vehicle depart="0" id="RB_L0I21" route="Ego_route" type="Ego" departLane = "0" color="1,1,1" departPos="87.5"/>      
        
      <vehicle depart="0" id="RB_L0I22" route="Ego_route" type="Ego" departLane = "0" color="1,1,1" departPos="78.0"/>      
        
      <vehicle depart="0" id="RB_L0I23" route="Ego_route" type="Ego" departLane = "0" color="1,1,1" departPos="59.0"/>      
        
      <vehicle depart="0" id="RB_L0I24" route="Ego_route" type="Ego" departLane = "0" color="1,1,1" departPos="49.5"/>      
        
      <vehicle depart="0" id="RB_L0I25" route="Ego_route" type="Ego" departLane = "0" color="1,1,1" departPos="40.0"/>      
        
      <vehicle depart="0" id="RB_L0I26" route="Ego_route" type="Ego" departLane = "0" color="1,1,1" departPos="30.5"/>      
        
      <vehicle depart="0" id="RB_L0I27" route="Ego_route" type="Ego" departLane = "0" color="1,1,1" departPos="21.0"/>      
        
      <vehicle depart="0" id="RB_L0I28" route="Ego_route" type="Ego" departLane = "0" color="1,1,1" departPos="11.5"/>      
        
      <vehicle depart="0" id="RB_L1I0" route="Ego_route" type="Ego" departLane = "1" color="1,1,1" departPos="334.5"/>      
        
      <vehicle depart="0" id="RB_L1I1" route="Ego_route" type="Ego" departLane = "1" color="1,1,1" departPos="325.0"/>      
        
      <vehicle depart="0" id="RB_L1I2" route="Ego_route" type="Ego" departLane = "1" color="1,1,1" departPos="315.5"/>      
        
      <vehicle depart="0" id="RB_L1I3" route="Ego_route" type="Ego" departLane = "1" color="1,1,1" departPos="306.0"/>      
        
      <vehicle depart="0" id="RB_L1I4" route="Ego_route" type="Ego" departLane = "1" color="1,1,1" departPos="296.5"/>      
        
      <vehicle depart="0" id="RB_L1I5" route="Ego_route" type="Ego" departLane = "1" color="1,1,1" departPos="277.5"/>      
        
      <vehicle depart="0" id="RB_L1I6" route="Ego_route" type="Ego" departLane = "1" color="1,1,1" departPos="268.0"/>      
        
      <vehicle depart="0" id="RB_L1I7" route="Ego_route" type="Ego" departLane = "1" color="1,1,1" departPos="258.5"/>      
        
      <vehicle depart="0" id="RB_L1I8" route="Ego_route" type="Ego" departLane = "1" color="1,1,1" departPos="230.0"/>      
        
      <vehicle depart="0" id="RB_L1I9" route="Ego_route" type="Ego" departLane = "1" color="1,1,1" departPos="211.0"/>      
        
      <vehicle depart="0" id="RB_L1I10" route="Ego_route" type="Ego" departLane = "1" color="1,1,1" departPos="201.5"/>      
        
      <vehicle depart="0" id="RB_L1I11" route="Ego_route" type="Ego" departLane = "1" color="1,1,1" departPos="192.0"/>      
        
      <vehicle depart="0" id="RB_L1I12" route="Ego_route" type="Ego" departLane = "1" color="1,1,1" departPos="182.5"/>      
        
      <vehicle depart="0" id="RB_L1I13" route="Ego_route" type="Ego" departLane = "1" color="1,1,1" departPos="163.5"/>      
        
      <vehicle depart="0" id="RB_L1I14" route="Ego_route" type="Ego" departLane = "1" color="1,1,1" departPos="154.0"/>      
        
      <vehicle depart="0" id="RB_L1I15" route="Ego_route" type="Ego" departLane = "1" color="1,1,1" departPos="135.0"/>      
        
      <vehicle depart="0" id="RB_L1I16" route="Ego_route" type="Ego" departLane = "1" color="1,1,1" departPos="125.5"/>      
        
      <vehicle depart="0" id="RB_L1I17" route="Ego_route" type="Ego" departLane = "1" color="1,1,1" departPos="116.0"/>      
        
      <vehicle depart="0" id="RB_L1I18" route="Ego_route" type="Ego" departLane = "1" color="1,1,1" departPos="106.5"/>      
        
      <vehicle depart="0" id="RB_L1I19" route="Ego_route" type="Ego" departLane = "1" color="1,1,1" departPos="97.0"/>      
        
      <vehicle depart="0" id="RB_L1I20" route="Ego_route" type="Ego" departLane = "1" color="1,1,1" departPos="87.5"/>      
        
      <vehicle depart="0" id="RB_L1I21" route="Ego_route" type="Ego" departLane = "1" color="1,1,1" departPos="68.5"/>      
        
      <vehicle depart="0" id="RB_L1I22" route="Ego_route" type="Ego" departLane = "1" color="1,1,1" departPos="59.0"/>      
        
      <vehicle depart="0" id="RB_L1I23" route="Ego_route" type="Ego" departLane = "1" color="1,1,1" departPos="49.5"/>      
        
      <vehicle depart="0" id="RB_L1I24" route="Ego_route" type="Ego" departLane = "1" color="1,1,1" departPos="30.5"/>      
        
      <vehicle depart="0" id="RB_L1I25" route="Ego_route" type="Ego" departLane = "1" color="1,1,1" departPos="21.0"/>      
        
      <vehicle depart="0" id="RB_L1I26" route="Ego_route" type="Ego" departLane = "1" color="1,1,1" departPos="11.5"/>      
        
      <vehicle depart="0" id="RB_L2I0" route="Ego_route" type="Ego" departLane = "2" color="1,1,1" departPos="325.0"/>      
        
      <vehicle depart="0" id="RB_L2I1" route="Ego_route" type="Ego" departLane = "2" color="1,1,1" departPos="315.5"/>      
        
      <vehicle depart="0" id="RB_L2I2" route="Ego_route" type="Ego" departLane = "2" color="1,1,1" departPos="287.0"/>      
        
      <vehicle depart="0" id="RB_L2I3" route="Ego_route" type="Ego" departLane = "2" color="1,1,1" departPos="277.5"/>      
        
      <vehicle depart="0" id="RB_L2I4" route="Ego_route" type="Ego" departLane = "2" color="1,1,1" departPos="268.0"/>      
        
      <vehicle depart="0" id="RB_L2I5" route="Ego_route" type="Ego" departLane = "2" color="1,1,1" departPos="249.0"/>      
        
      <vehicle depart="0" id="RB_L2I6" route="Ego_route" type="Ego" departLane = "2" color="1,1,1" departPos="239.5"/>      
        
      <vehicle depart="0" id="RB_L2I7" route="Ego_route" type="Ego" departLane = "2" color="1,1,1" departPos="220.5"/>      
        
      <vehicle depart="0" id="RB_L2I8" route="Ego_route" type="Ego" departLane = "2" color="1,1,1" departPos="211.0"/>      
        
      <vehicle depart="0" id="RB_L2I9" route="Ego_route" type="Ego" departLane = "2" color="1,1,1" departPos="201.5"/>      
        
      <vehicle depart="0" id="RB_L2I10" route="Ego_route" type="Ego" departLane = "2" color="1,1,1" departPos="182.5"/>      
        
      <vehicle depart="0" id="RB_L2I11" route="Ego_route" type="Ego" departLane = "2" color="1,1,1" departPos="173.0"/>      
        
      <vehicle depart="0" id="RB_L2I12" route="Ego_route" type="Ego" departLane = "2" color="1,1,1" departPos="163.5"/>      
        
      <vehicle depart="0" id="RB_L2I13" route="Ego_route" type="Ego" departLane = "2" color="1,1,1" departPos="154.0"/>      
        
      <vehicle depart="0" id="RB_L2I14" route="Ego_route" type="Ego" departLane = "2" color="1,1,1" departPos="144.5"/>      
        
      <vehicle depart="0" id="RB_L2I15" route="Ego_route" type="Ego" departLane = "2" color="1,1,1" departPos="135.0"/>      
        
      <vehicle depart="0" id="RB_L2I16" route="Ego_route" type="Ego" departLane = "2" color="1,1,1" departPos="125.5"/>      
        
      <vehicle depart="0" id="RB_L2I17" route="Ego_route" type="Ego" departLane = "2" color="1,1,1" departPos="106.5"/>      
        
      <vehicle depart="0" id="RB_L2I18" route="Ego_route" type="Ego" departLane = "2" color="1,1,1" departPos="97.0"/>      
        
      <vehicle depart="0" id="RB_L2I19" route="Ego_route" type="Ego" departLane = "2" color="1,1,1" departPos="87.5"/>      
        
      <vehicle depart="0" id="RB_L2I20" route="Ego_route" type="Ego" departLane = "2" color="1,1,1" departPos="59.0"/>      
        
      <vehicle depart="0" id="RB_L2I21" route="Ego_route" type="Ego" departLane = "2" color="1,1,1" departPos="49.5"/>      
        
      <vehicle depart="0" id="RB_L2I22" route="Ego_route" type="Ego" departLane = "2" color="1,1,1" departPos="40.0"/>      
        
      <vehicle depart="0" id="RB_L2I23" route="Ego_route" type="Ego" departLane = "2" color="1,1,1" departPos="21.0"/>      
        
      <vehicle depart="0" id="RB_L2I24" route="Ego_route" type="Ego" departLane = "2" color="1,1,1" departPos="11.5"/>      
      

      <!-- depart: Determines the time at which the vehicle enters the network  -->
      <!-- edges: sequence of routes for vehicle-->
      <!-- r1L for ego only, -->
      <!-- more info: https://sumo.dlr.de/docs/Definition_of_Vehicles,_Vehicle_Types,_and_Routes.html#depart -->
      <!--      <vehicle depart="0" id="RB" route="Ego_route" type="Ego" departLane = "" />
-->

</routes>