

<routes >
    <vType id="Emer" minGap="10.00" maxSpeed="100.00" vClass="emergency" emissionClass="HBEFA3/PC_G_EU4" guiShape="passenger" width="1.80" height="1.50" lcCooperative="0" lcKeepRight="10" sigma="0"/>
    <vType id="LH" minGap="10.00" maxSpeed="100.00" vClass="emergency" emissionClass="HBEFA3/PC_G_EU4" guiShape="passenger" width="1.80" height="1.50" lcCooperative="0" lcKeepRight="10" sigma="0"/>
    <vType id="vType_0" minGap="10.00" maxSpeed="100.00" vClass="emergency" emissionClass="HBEFA3/PC_G_EU4" guiShape="passenger" width="1.80" height="1.50" lcCooperative="0" lcKeepRight="10" sigma="0"/>
    <route id="Main_route" edges="r1 r2 r3 r4 "/>
    <route id="Early_route" edges="r2 r3 r4 r1 "/>
    <vehicle depart="0" id="Emer" route="Early_route" type="Emer" />
    <vehicle depart="0" id="LH" route="Main_route" type="LH" />
    <vehicle depart="0" id="vType_0" route="Main_route" type="vType_0" />
</routes>
