<routes>

      <vType id="Emergency" minGap="2.5" length="2.0" maxSpeed="10.0" sigma="0.0" color='1,0,0' accel = "2.0" decel = "2.0" emergencyDecel="2.0"/>
      <vType id="Ego" minGap="2.5" length="2.0" maxSpeed="5.0" sigma="0.0" color='0,0,1' accel = "1.0" decel = "1.0"  emergencyDecel="1.0" />

      <route id="Emer_route" edges="r1 r2"/>
      <route id="Ego_route" edges="r2"/>

      
      <vehicle depart="0" departSpeed = "10.0" id="LH" route="Emer_route" type="Emergency" departLane = "1"/>

        
      <vehicle depart="0" id="RB_L0I0" route="Ego_route" type="Ego" departLane = "0" color="1,1,1" departPos="438.0"/>      
        
      <vehicle depart="0" id="RB_L0I1" route="Ego_route" type="Ego" departLane = "0" color="1,1,1" departPos="419.0"/>      
        
      <vehicle depart="0" id="RB_L0I2" route="Ego_route" type="Ego" departLane = "0" color="1,1,1" departPos="400.0"/>      
        
      <vehicle depart="0" id="RB_L0I3" route="Ego_route" type="Ego" departLane = "0" color="1,1,1" departPos="390.5"/>      
        
      <vehicle depart="0" id="RB_L0I4" route="Ego_route" type="Ego" departLane = "0" color="1,1,1" departPos="352.5"/>      
        
      <vehicle depart="0" id="RB_L0I5" route="Ego_route" type="Ego" departLane = "0" color="1,1,1" departPos="324.0"/>      
        
      <vehicle depart="0" id="RB_L0I6" route="Ego_route" type="Ego" departLane = "0" color="1,1,1" departPos="276.5"/>      
        
      <vehicle depart="0" id="RB_L0I7" route="Ego_route" type="Ego" departLane = "0" color="1,1,1" departPos="238.5"/>      
        
      <vehicle depart="0" id="RB_L0I8" route="Ego_route" type="Ego" departLane = "0" color="1,1,1" departPos="229.0"/>      
        
      <vehicle depart="0" id="RB_L0I9" route="Ego_route" type="Ego" departLane = "0" color="1,1,1" departPos="219.5"/>      
        
      <vehicle depart="0" id="RB_L0I10" route="Ego_route" type="Ego" departLane = "0" color="1,1,1" departPos="181.5"/>      
        
      <vehicle depart="0" id="RB_L0I11" route="Ego_route" type="Ego" departLane = "0" color="1,1,1" departPos="162.5"/>      
        
      <vehicle depart="0" id="RB_L0I12" route="Ego_route" type="Ego" departLane = "0" color="1,1,1" departPos="134.0"/>      
        
      <vehicle depart="0" id="RB_L0I13" route="Ego_route" type="Ego" departLane = "0" color="1,1,1" departPos="115.0"/>      
        
      <vehicle depart="0" id="RB_L0I14" route="Ego_route" type="Ego" departLane = "0" color="1,1,1" departPos="86.5"/>      
        
      <vehicle depart="0" id="RB_L0I15" route="Ego_route" type="Ego" departLane = "0" color="1,1,1" departPos="77.0"/>      
        
      <vehicle depart="0" id="RB_L0I16" route="Ego_route" type="Ego" departLane = "0" color="1,1,1" departPos="58.0"/>      
        
      <vehicle depart="0" id="RB_L0I17" route="Ego_route" type="Ego" departLane = "0" color="1,1,1" departPos="48.5"/>      
        
      <vehicle depart="0" id="RB_L0I18" route="Ego_route" type="Ego" departLane = "0" color="1,1,1" departPos="29.5"/>      
        
      <vehicle depart="0" id="RB_L0I19" route="Ego_route" type="Ego" departLane = "0" color="1,1,1" departPos="10.5"/>      
        
      <vehicle depart="0" id="RB_L1I0" route="Ego_route" type="Ego" departLane = "1" color="1,1,1" departPos="419.0"/>      
        
      <vehicle depart="0" id="RB_L1I1" route="Ego_route" type="Ego" departLane = "1" color="1,1,1" departPos="409.5"/>      
        
      <vehicle depart="0" id="RB_L1I2" route="Ego_route" type="Ego" departLane = "1" color="1,1,1" departPos="400.0"/>      
        
      <vehicle depart="0" id="RB_L1I3" route="Ego_route" type="Ego" departLane = "1" color="1,1,1" departPos="371.5"/>      
        
      <vehicle depart="0" id="RB_L1I4" route="Ego_route" type="Ego" departLane = "1" color="1,1,1" departPos="286.0"/>      
        
      <vehicle depart="0" id="RB_L1I5" route="Ego_route" type="Ego" departLane = "1" color="1,1,1" departPos="267.0"/>      
        
      <vehicle depart="0" id="RB_L1I6" route="Ego_route" type="Ego" departLane = "1" color="1,1,1" departPos="248.0"/>      
        
      <vehicle depart="0" id="RB_L1I7" route="Ego_route" type="Ego" departLane = "1" color="1,1,1" departPos="238.5"/>      
        
      <vehicle depart="0" id="RB_L1I8" route="Ego_route" type="Ego" departLane = "1" color="1,1,1" departPos="229.0"/>      
        
      <vehicle depart="0" id="RB_L1I9" route="Ego_route" type="Ego" departLane = "1" color="1,1,1" departPos="200.5"/>      
        
      <vehicle depart="0" id="RB_L1I10" route="Ego_route" type="Ego" departLane = "1" color="1,1,1" departPos="191.0"/>      
        
      <vehicle depart="0" id="RB_L1I11" route="Ego_route" type="Ego" departLane = "1" color="1,1,1" departPos="115.0"/>      
        
      <vehicle depart="0" id="RB_L1I12" route="Ego_route" type="Ego" departLane = "1" color="1,1,1" departPos="96.0"/>      
        
      <vehicle depart="0" id="RB_L1I13" route="Ego_route" type="Ego" departLane = "1" color="1,1,1" departPos="29.5"/>      
        
      <vehicle depart="0" id="RB_L2I0" route="Ego_route" type="Ego" departLane = "2" color="1,1,1" departPos="419.0"/>      
        
      <vehicle depart="0" id="RB_L2I1" route="Ego_route" type="Ego" departLane = "2" color="1,1,1" departPos="400.0"/>      
        
      <vehicle depart="0" id="RB_L2I2" route="Ego_route" type="Ego" departLane = "2" color="1,1,1" departPos="371.5"/>      
        
      <vehicle depart="0" id="RB_L2I3" route="Ego_route" type="Ego" departLane = "2" color="1,1,1" departPos="352.5"/>      
        
      <vehicle depart="0" id="RB_L2I4" route="Ego_route" type="Ego" departLane = "2" color="1,1,1" departPos="343.0"/>      
        
      <vehicle depart="0" id="RB_L2I5" route="Ego_route" type="Ego" departLane = "2" color="1,1,1" departPos="324.0"/>      
        
      <vehicle depart="0" id="RB_L2I6" route="Ego_route" type="Ego" departLane = "2" color="1,1,1" departPos="305.0"/>      
        
      <vehicle depart="0" id="RB_L2I7" route="Ego_route" type="Ego" departLane = "2" color="1,1,1" departPos="295.5"/>      
        
      <vehicle depart="0" id="RB_L2I8" route="Ego_route" type="Ego" departLane = "2" color="1,1,1" departPos="276.5"/>      
        
      <vehicle depart="0" id="RB_L2I9" route="Ego_route" type="Ego" departLane = "2" color="1,1,1" departPos="229.0"/>      
        
      <vehicle depart="0" id="RB_L2I10" route="Ego_route" type="Ego" departLane = "2" color="1,1,1" departPos="191.0"/>      
        
      <vehicle depart="0" id="RB_L2I11" route="Ego_route" type="Ego" departLane = "2" color="1,1,1" departPos="181.5"/>      
        
      <vehicle depart="0" id="RB_L2I12" route="Ego_route" type="Ego" departLane = "2" color="1,1,1" departPos="162.5"/>      
        
      <vehicle depart="0" id="RB_L2I13" route="Ego_route" type="Ego" departLane = "2" color="1,1,1" departPos="153.0"/>      
        
      <vehicle depart="0" id="RB_L2I14" route="Ego_route" type="Ego" departLane = "2" color="1,1,1" departPos="134.0"/>      
        
      <vehicle depart="0" id="RB_L2I15" route="Ego_route" type="Ego" departLane = "2" color="1,1,1" departPos="124.5"/>      
        
      <vehicle depart="0" id="RB_L2I16" route="Ego_route" type="Ego" departLane = "2" color="1,1,1" departPos="115.0"/>      
        
      <vehicle depart="0" id="RB_L2I17" route="Ego_route" type="Ego" departLane = "2" color="1,1,1" departPos="86.5"/>      
        
      <vehicle depart="0" id="RB_L2I18" route="Ego_route" type="Ego" departLane = "2" color="1,1,1" departPos="77.0"/>      
        
      <vehicle depart="0" id="RB_L2I19" route="Ego_route" type="Ego" departLane = "2" color="1,1,1" departPos="67.5"/>      
        
      <vehicle depart="0" id="RB_L2I20" route="Ego_route" type="Ego" departLane = "2" color="1,1,1" departPos="58.0"/>      
        
      <vehicle depart="0" id="RB_L2I21" route="Ego_route" type="Ego" departLane = "2" color="1,1,1" departPos="48.5"/>      
        
      <vehicle depart="0" id="RB_L2I22" route="Ego_route" type="Ego" departLane = "2" color="1,1,1" departPos="29.5"/>      
        
      <vehicle depart="0" id="RB_L2I23" route="Ego_route" type="Ego" departLane = "2" color="1,1,1" departPos="20.0"/>      
      

      <!-- depart: Determines the time at which the vehicle enters the network  -->
      <!-- edges: sequence of routes for vehicle-->
      <!-- r1L for ego only, -->
      <!-- more info: https://sumo.dlr.de/docs/Definition_of_Vehicles,_Vehicle_Types,_and_Routes.html#depart -->
      <!--      <vehicle depart="0" id="RB" route="Ego_route" type="Ego" departLane = "" />
-->

</routes>