<?xml version="1.0" encoding="UTF-8"?>

<!-- generated on 05/09/20 08:00:10 by Eclipse SUMO GUI Version v1_5_0+0742-a5dc31a60d
<configuration xmlns:xsi="http://www.w3.org/2001/XMLSchema-instance" xsi:noNamespaceSchemaLocation="http://sumo.dlr.de/xsd/sumoConfiguration.xsd">

    <input>
        <net-file value="D:\Career\GP\RLRep\Anarcho1.4\Sumo_files/Anarcho1.3.net.xml"/>
        <route-files value="D:\Career\GP\RLRep\Anarcho1.4\Sumo_files/Anarcho1.3.rou.xml"/>
    </input>

    <output>
        <tripinfo-output value="tripinfo.xml"/>
    </output>

    <time>
        <begin value="0"/>
        <end value="10000"/>
    </time>

    <traci_server>
        <remote-port value="24900"/>
    </traci_server>

    <random_number>
        <seed value="5"/>
    </random_number>

</configuration>
