<configuration>

    <input>
        <net-file value="Anarcho1.3.net.xml"/>
        <route-files value="Anarcho1.3.rou.xml"/>

    </input>
    <time>

        <begin value="0"/>
        <end value="10000"/>
    </time>
</configuration>
