<?xml version="1.0" encoding="UTF-8"?>

<!-- generated on Sat Feb 15 23:25:20 2020 by Eclipse SUMO netedit Version 1.4.0
<configuration xmlns:xsi="http://www.w3.org/2001/XMLSchema-instance" xsi:noNamespaceSchemaLocation="http://sumo.dlr.de/xsd/netconvertConfiguration.xsd">

    <output>
        <output-file value="/Users/Abdulhady/Desktop/GP/RL/Anarcho1.0/Anarcho1.0.net.xml"/>
    </output>

    <processing>
        <offset.disable-normalization value="true"/>
    </processing>

    <junctions>
        <no-turnarounds value="true"/>
    </junctions>

    <report>
        <aggregate-warnings value="5"/>
    </report>

</configuration>
-->

<net version="1.3" junctionCornerDetail="5" limitTurnSpeed="5.50" xmlns:xsi="http://www.w3.org/2001/XMLSchema-instance" xsi:noNamespaceSchemaLocation="http://sumo.dlr.de/xsd/net_file.xsd">

    <location netOffset="0.00,0.00" convBoundary="0.00,0.00,100.00,100.00" origBoundary="10000000000.00,10000000000.00,-10000000000.00,-10000000000.00" projParameter="!"/>

    <edge id=":e1_0" function="internal">
        <lane id=":e1_0_0" index="0" speed="3.90" length="2.58" shape="6.40,4.80 5.70,4.90 5.20,5.20 4.90,5.70 4.80,6.40"/>
    </edge>
    <edge id=":e1_1" function="internal">
        <lane id=":e1_1_0" index="0" speed="6.08" length="7.74" shape="6.40,1.60 4.30,1.90 2.80,2.80 1.90,4.30 1.60,6.40"/>
    </edge>
    <edge id=":e2_0" function="internal">
        <lane id=":e2_0_0" index="0" speed="3.90" length="2.58" shape="4.80,93.60 4.90,94.30 5.20,94.80 5.70,95.10 6.40,95.20"/>
    </edge>
    <edge id=":e2_1" function="internal">
        <lane id=":e2_1_0" index="0" speed="6.08" length="7.74" shape="1.60,93.60 1.90,95.70 2.80,97.20 4.30,98.10 6.40,98.40"/>
    </edge>
    <edge id=":e3_0" function="internal">
        <lane id=":e3_0_0" index="0" speed="3.90" length="2.58" shape="93.60,95.20 94.30,95.10 94.80,94.80 95.10,94.30 95.20,93.60"/>
    </edge>
    <edge id=":e3_1" function="internal">
        <lane id=":e3_1_0" index="0" speed="6.08" length="7.74" shape="93.60,98.40 95.70,98.10 97.20,97.20 98.10,95.70 98.40,93.60"/>
    </edge>
    <edge id=":e4_0" function="internal">
        <lane id=":e4_0_0" index="0" speed="3.90" length="2.58" shape="95.20,6.40 95.10,5.70 94.80,5.20 94.30,4.90 93.60,4.80"/>
    </edge>
    <edge id=":e4_1" function="internal">
        <lane id=":e4_1_0" index="0" speed="6.08" length="7.74" shape="98.40,6.40 98.10,4.30 97.20,2.80 95.70,1.90 93.60,1.60"/>
    </edge>

    <edge id="r1" from="e1" to="e2" priority="-1" length="1000.00">
        <lane id="r1_0" index="0" speed="13.89" length="1000.00" shape="4.80,6.40 4.80,93.60"/>
        <lane id="r1_1" index="1" speed="13.89" length="1000.00" shape="1.60,6.40 1.60,93.60"/>
    </edge>
    <edge id="r2" from="e2" to="e3" priority="-1" length="1000.00">
        <lane id="r2_0" index="0" speed="13.89" length="1000.00" shape="6.40,95.20 93.60,95.20"/>
        <lane id="r2_1" index="1" speed="13.89" length="1000.00" shape="6.40,98.40 93.60,98.40"/>
    </edge>
    <edge id="r3" from="e3" to="e4" priority="-1" length="1000.00">
        <lane id="r3_0" index="0" speed="13.89" length="1000.00" shape="95.20,93.60 95.20,6.40"/>
        <lane id="r3_1" index="1" speed="13.89" length="1000.00" shape="98.40,93.60 98.40,6.40"/>
    </edge>
    <edge id="r4" from="e4" to="e1" priority="-1" length="1000.00">
        <lane id="r4_0" index="0" speed="13.89" length="1000.00" shape="93.60,4.80 6.40,4.80"/>
        <lane id="r4_1" index="1" speed="13.89" length="1000.00" shape="93.60,1.60 6.40,1.60"/>
    </edge>

    <junction id="e1" type="priority" x="0.00" y="0.00" incLanes="r4_0 r4_1" intLanes=":e1_0_0 :e1_1_0" shape="0.00,6.40 6.40,6.40 6.40,0.00 2.84,0.71 1.60,1.60 0.71,2.84 0.18,4.44">
        <request index="0" response="00" foes="00" cont="0"/>
        <request index="1" response="00" foes="00" cont="0"/>
    </junction>
    <junction id="e2" type="priority" x="0.00" y="100.00" incLanes="r1_0 r1_1" intLanes=":e2_0_0 :e2_1_0" shape="6.40,100.00 6.40,93.60 0.00,93.60 0.71,97.16 1.60,98.40 2.84,99.29 4.44,99.82">
        <request index="0" response="00" foes="00" cont="0"/>
        <request index="1" response="00" foes="00" cont="0"/>
    </junction>
    <junction id="e3" type="priority" x="100.00" y="100.00" incLanes="r2_0 r2_1" intLanes=":e3_0_0 :e3_1_0" shape="100.00,93.60 93.60,93.60 93.60,100.00 97.16,99.29 98.40,98.40 99.29,97.16 99.82,95.56">
        <request index="0" response="00" foes="00" cont="0"/>
        <request index="1" response="00" foes="00" cont="0"/>
    </junction>
    <junction id="e4" type="priority" x="100.00" y="0.00" incLanes="r3_0 r3_1" intLanes=":e4_0_0 :e4_1_0" shape="93.60,6.40 100.00,6.40 99.29,2.84 98.40,1.60 97.16,0.71 95.56,0.18 93.60,0.00">
        <request index="0" response="00" foes="00" cont="0"/>
        <request index="1" response="00" foes="00" cont="0"/>
    </junction>

    <connection from="r1" to="r2" fromLane="0" toLane="0" via=":e2_0_0" dir="r" state="M"/>
    <connection from="r1" to="r2" fromLane="1" toLane="1" via=":e2_1_0" dir="r" state="M"/>
    <connection from="r2" to="r3" fromLane="0" toLane="0" via=":e3_0_0" dir="r" state="M"/>
    <connection from="r2" to="r3" fromLane="1" toLane="1" via=":e3_1_0" dir="r" state="M"/>
    <connection from="r3" to="r4" fromLane="0" toLane="0" via=":e4_0_0" dir="r" state="M"/>
    <connection from="r3" to="r4" fromLane="1" toLane="1" via=":e4_1_0" dir="r" state="M"/>
    <connection from="r4" to="r1" fromLane="0" toLane="0" via=":e1_0_0" dir="r" state="M"/>
    <connection from="r4" to="r1" fromLane="1" toLane="1" via=":e1_1_0" dir="r" state="M"/>

    <connection from=":e1_0" to="r1" fromLane="0" toLane="0" dir="r" state="M"/>
    <connection from=":e1_1" to="r1" fromLane="0" toLane="1" dir="r" state="M"/>
    <connection from=":e2_0" to="r2" fromLane="0" toLane="0" dir="r" state="M"/>
    <connection from=":e2_1" to="r2" fromLane="0" toLane="1" dir="r" state="M"/>
    <connection from=":e3_0" to="r3" fromLane="0" toLane="0" dir="r" state="M"/>
    <connection from=":e3_1" to="r3" fromLane="0" toLane="1" dir="r" state="M"/>
    <connection from=":e4_0" to="r4" fromLane="0" toLane="0" dir="r" state="M"/>
    <connection from=":e4_1" to="r4" fromLane="0" toLane="1" dir="r" state="M"/>

</net>
